data/ENWL_4w_Network1_Feeders1and2 copy/Lines_v2.txt
! Feeder 1
! Imported from Lines.txt, with modified linecodes
! ----------------------------------------------------------------------------------------------
New Line.F1_LINE0 Bus1=Tx1.1.2.3.4 Bus2=F1_1.1.2.3.4 phases=4 Linecode=LC3 Length=1 Units=m
New Line.F1_LINE1 Bus1=F1_1.1.2.3.4 Bus2=F1_2.1.2.3.4 phases=4 Linecode=LC3 Length=1.098 Units=m
New Line.F1_LINE2 Bus1=F1_2.1.2.3.4 Bus2=F1_3.1.2.3.4 phases=4 Linecode=LC3 Length=0.11511 Units=m
New Line.F1_LINE3 Bus1=F1_3.1.2.3.4 Bus2=F1_4.1.2.3.4 phases=4 Linecode=LC3 Length=0.10784 Units=m
New Line.F1_LINE4 Bus1=F1_4.1.2.3.4 Bus2=F1_5.1.2.3.4 phases=4 Linecode=LC3 Length=0.094021 Units=m
New Line.F1_LINE5 Bus1=F1_5.1.2.3.4 Bus2=F1_6.1.2.3.4 phases=4 Linecode=LC3 Length=0.14812 Units=m
New Line.F1_LINE6 Bus1=F1_6.1.2.3.4 Bus2=F1_7.1.2.3.4 phases=4 Linecode=LC3 Length=10.0863 Units=m
New Line.F1_LINE7 Bus1=F1_7.1.2.3.4 Bus2=F1_8.1.2.3.4 phases=4 Linecode=LC3 Length=0.45175 Units=m
New Line.F1_LINE8 Bus1=F1_8.1.2.3.4 Bus2=F1_9.1.2.3.4 phases=4 Linecode=LC3 Length=0.376 Units=m
New Line.F1_LINE9 Bus1=F1_9.1.2.3.4 Bus2=F1_10.1.2.3.4 phases=4 Linecode=LC3 Length=0.32997 Units=m
New Line.F1_LINE10 Bus1=F1_10.1.2.3.4 Bus2=F1_11.1.2.3.4 phases=4 Linecode=LC3 Length=0.24622 Units=m
New Line.F1_LINE11 Bus1=F1_11.1.2.3.4 Bus2=F1_12.1.2.3.4 phases=4 Linecode=LC3 Length=0.23114 Units=m
New Line.F1_LINE12 Bus1=F1_12.1.2.3.4 Bus2=F1_13.1.2.3.4 phases=4 Linecode=LC3 Length=0.14213 Units=m
New Line.F1_LINE13 Bus1=F1_13.1.2.3.4 Bus2=F1_14.1.2.3.4 phases=4 Linecode=LC3 Length=0.35384 Units=m
New Line.F1_LINE14 Bus1=F1_14.1.2.3.4 Bus2=F1_15.1.2.3.4 phases=4 Linecode=LC3 Length=2.8664 Units=m
New Line.F1_LINE15 Bus1=F1_15.1.2.3.4 Bus2=F1_16.1.2.3.4 phases=4 Linecode=LC6 Length=0.09654 Units=m
New Line.F1_LINE16 Bus1=F1_15.1.2.3.4 Bus2=F1_17.1.2.3.4 phases=4 Linecode=LC3 Length=3.476 Units=m
New Line.F1_LINE17 Bus1=F1_16.1.2.3.4 Bus2=F1_18.1.2.3.4 phases=4 Linecode=LC6 Length=0.044045 Units=m
New Line.F1_LINE18 Bus1=F1_17.1.2.3.4 Bus2=F1_19.1.2.3.4 phases=4 Linecode=LC3 Length=0.23917 Units=m
New Line.F1_LINE19 Bus1=F1_18.1.2.3.4 Bus2=F1_20.1.2.3.4 phases=4 Linecode=LC6 Length=0.046174 Units=m
New Line.F1_LINE20 Bus1=F1_19.1.2.3.4 Bus2=F1_21.1.2.3.4 phases=4 Linecode=LC3 Length=0.26856 Units=m
New Line.F1_LINE21 Bus1=F1_20.1.2.3.4 Bus2=F1_22.1.2.3.4 phases=4 Linecode=LC6 Length=0.041976 Units=m
New Line.F1_LINE22 Bus1=F1_21.1.2.3.4 Bus2=F1_23.1.2.3.4 phases=4 Linecode=LC3 Length=0.43727 Units=m
New Line.F1_LINE23 Bus1=F1_22.1.2.3.4 Bus2=F1_24.1.2.3.4 phases=4 Linecode=LC6 Length=0.051245 Units=m
New Line.F1_LINE24 Bus1=F1_23.1.2.3.4 Bus2=F1_25.1.2.3.4 phases=4 Linecode=LC3 Length=0.7955 Units=m
New Line.F1_LINE25 Bus1=F1_24.1.2.3.4 Bus2=F1_26.1.2.3.4 phases=4 Linecode=LC6 Length=0.055902 Units=m
New Line.F1_LINE26 Bus1=F1_25.1.2.3.4 Bus2=F1_27.1.2.3.4 phases=4 Linecode=LC1 Length=5.9049 Units=m
New Line.F1_LINE27 Bus1=F1_25.1.2.3.4 Bus2=F1_28.1.2.3.4 phases=4 Linecode=LC3 Length=9.9686 Units=m
New Line.F1_LINE28 Bus1=F1_26.1.2.3.4 Bus2=F1_29.1.2.3.4 phases=4 Linecode=LC6 Length=0.054562 Units=m
New Line.F1_LINE29 Bus1=F1_27.1.2.3.4 Bus2=F1_30.1.2.3.4 phases=4 Linecode=LC1 Length=1.6265 Units=m
New Line.F1_LINE30 Bus1=F1_27.1.2.3.4 Bus2=F1_31.1.2.3.4 phases=4 Linecode=LC1 Length=1.5847 Units=m
New Line.F1_LINE31 Bus1=F1_28.1.2.3.4 Bus2=F1_32.1.2.3.4 phases=4 Linecode=LC3 Length=2.6538 Units=m
New Line.F1_LINE32 Bus1=F1_29.1.2.3.4 Bus2=F1_33.1.2.3.4 phases=4 Linecode=LC6 Length=0.14629 Units=m
New Line.F1_LINE33 Bus1=F1_30.1.2.3.4 Bus2=F1_34.1.2.3.4 phases=4 Linecode=LC1 Length=3.7248 Units=m
New Line.F1_LINE34 Bus1=F1_31.1.2.3.4 Bus2=F1_35.1.2.3.4 phases=4 Linecode=LC1 Length=0.053666 Units=m
New Line.F1_LINE35 Bus1=F1_32.1.2.3.4 Bus2=F1_36.1.2.3.4 phases=4 Linecode=LC1 Length=5.7265 Units=m
New Line.F1_LINE36 Bus1=F1_32.1.2.3.4 Bus2=F1_37.1.2.3.4 phases=4 Linecode=LC3 Length=8.0244 Units=m
New Line.F1_LINE37 Bus1=F1_33.1.2.3.4 Bus2=F1_38.1.2.3.4 phases=4 Linecode=LC6 Length=0.13648 Units=m
New Line.F1_LINE38 Bus1=F1_35.1.2.3.4 Bus2=F1_39.1.2.3.4 phases=4 Linecode=LC1 Length=0.077162 Units=m
New Line.F1_LINE39 Bus1=F1_36.1.2.3.4 Bus2=F1_40.1.2.3.4 phases=4 Linecode=LC1 Length=0.40004 Units=m
New Line.F1_LINE40 Bus1=F1_36.1.2.3.4 Bus2=F1_41.1.2.3.4 phases=4 Linecode=LC1 Length=1.8063 Units=m
New Line.F1_LINE41 Bus1=F1_37.1.2.3.4 Bus2=F1_42.1.2.3.4 phases=4 Linecode=LC3 Length=5.5684 Units=m
New Line.F1_LINE42 Bus1=F1_37.1.2.3.4 Bus2=F1_43.1.2.3.4 phases=4 Linecode=LC7 Length=0.21675 Units=m
New Line.F1_LINE43 Bus1=F1_38.1.2.3.4 Bus2=F1_44.1.2.3.4 phases=4 Linecode=LC6 Length=0.033838 Units=m
New Line.F1_LINE44 Bus1=F1_39.1.2.3.4 Bus2=F1_45.1.2.3.4 phases=4 Linecode=LC1 Length=0.098955 Units=m
New Line.F1_LINE45 Bus1=F1_40.1.2.3.4 Bus2=F1_46.1.2.3.4 phases=4 Linecode=LC1 Length=0.18031 Units=m
New Line.F1_LINE46 Bus1=F1_41.1.2.3.4 Bus2=F1_47.1.2.3.4 phases=4 Linecode=LC1 Length=4.3463 Units=m
New Line.F1_LINE47 Bus1=F1_42.1.2.3.4 Bus2=F1_48.1.2.3.4 phases=4 Linecode=LC3 Length=4.2078 Units=m
New Line.F1_LINE48 Bus1=F1_43.1.2.3.4 Bus2=F1_49.1.2.3.4 phases=4 Linecode=LC7 Length=0.10436 Units=m
New Line.F1_LINE49 Bus1=F1_44.1.2.3.4 Bus2=F1_50.1.2.3.4 phases=4 Linecode=LC6 Length=0.048104 Units=m
New Line.F1_LINE50 Bus1=F1_45.1.2.3.4 Bus2=F1_51.1.2.3.4 phases=4 Linecode=LC1 Length=0.241 Units=m
New Line.F1_LINE51 Bus1=F1_46.1.2.3.4 Bus2=F1_52.1.2.3.4 phases=4 Linecode=LC1 Length=0.19109 Units=m
New Line.F1_LINE52 Bus1=F1_48.1.2.3.4 Bus2=F1_53.1.2.3.4 phases=4 Linecode=LC3 Length=0.60668 Units=m
New Line.F1_LINE53 Bus1=F1_48.1.2.3.4 Bus2=F1_54.1.2.3.4 phases=4 Linecode=LC3 Length=0.63949 Units=m
New Line.F1_LINE54 Bus1=F1_49.1.2.3.4 Bus2=F1_55.1.2.3.4 phases=4 Linecode=LC7 Length=0.11625 Units=m
New Line.F1_LINE55 Bus1=F1_50.1.2.3.4 Bus2=F1_56.1.2.3.4 phases=4 Linecode=LC6 Length=0.087664 Units=m
New Line.F1_LINE56 Bus1=F1_51.1.2.3.4 Bus2=F1_57.1.2.3.4 phases=4 Linecode=LC1 Length=0.20634 Units=m
New Line.F1_LINE57 Bus1=F1_52.1.2.3.4 Bus2=F1_58.1.2.3.4 phases=4 Linecode=LC1 Length=0.182 Units=m
New Line.F1_LINE58 Bus1=F1_53.1.2.3.4 Bus2=F1_59.1.2.3.4 phases=4 Linecode=LC3 Length=2.7481 Units=m
New Line.F1_LINE59 Bus1=F1_54.1.2.3.4 Bus2=F1_60.1.2.3.4 phases=4 Linecode=LC3 Length=0.065368 Units=m
New Line.F1_LINE60 Bus1=F1_55.1.2.3.4 Bus2=F1_61.1.2.3.4 phases=4 Linecode=LC7 Length=0.10028 Units=m
New Line.F1_LINE61 Bus1=F1_56.1.2.3.4 Bus2=F1_62.1.2.3.4 phases=4 Linecode=LC6 Length=0.078 Units=m
New Line.F1_LINE62 Bus1=F1_57.1.2.3.4 Bus2=F1_63.1.2.3.4 phases=4 Linecode=LC1 Length=0.98912 Units=m
New Line.F1_LINE63 Bus1=F1_58.1.2.3.4 Bus2=F1_64.1.2.3.4 phases=4 Linecode=LC1 Length=0.109 Units=m
New Line.F1_LINE64 Bus1=F1_59.1.2.3.4 Bus2=F1_65.1.2.3.4 phases=4 Linecode=LC3 Length=0.55868 Units=m
New Line.F1_LINE65 Bus1=F1_59.1.2.3.4 Bus2=F1_66.1.2.3.4 phases=4 Linecode=LC1 Length=8.2583 Units=m
New Line.F1_LINE66 Bus1=F1_60.1.2.3.4 Bus2=F1_67.1.2.3.4 phases=4 Linecode=LC3 Length=0.074 Units=m
New Line.F1_LINE67 Bus1=F1_61.1.2.3.4 Bus2=F1_68.1.2.3.4 phases=4 Linecode=LC7 Length=0.096042 Units=m
New Line.F1_LINE68 Bus1=F1_62.1.2.3.4 Bus2=F1_69.1.2.3.4 phases=4 Linecode=LC6 Length=0.083241 Units=m
New Line.F1_LINE69 Bus1=F1_63.1.2.3.4 Bus2=F1_70.1.2.3.4 phases=4 Linecode=LC1 Length=3.4962 Units=m
New Line.F1_LINE70 Bus1=F1_64.1.2.3.4 Bus2=F1_71.1.2.3.4 phases=4 Linecode=LC1 Length=0.21385 Units=m
New Line.F1_LINE71 Bus1=F1_65.1.2.3.4 Bus2=F1_72.1.2.3.4 phases=4 Linecode=LC3 Length=6.6006 Units=m
New Line.F1_LINE72 Bus1=F1_66.1.2.3.4 Bus2=F1_73.1.2.3.4 phases=4 Linecode=LC1 Length=4.0366 Units=m
New Line.F1_LINE73 Bus1=F1_66.1.2.3.4 Bus2=F1_74.1.2.3.4 phases=4 Linecode=LC1 Length=4.0366 Units=m
New Line.F1_LINE74 Bus1=F1_67.1.2.3.4 Bus2=F1_75.1.2.3.4 phases=4 Linecode=LC3 Length=0.17951 Units=m
New Line.F1_LINE75 Bus1=F1_68.1.2.3.4 Bus2=F1_76.1.2.3.4 phases=4 Linecode=LC7 Length=0.23551 Units=m
New Line.F1_LINE76 Bus1=F1_69.1.2.3.4 Bus2=F1_77.1.2.3.4 phases=4 Linecode=LC6 Length=0.38907 Units=m
New Line.F1_LINE77 Bus1=F1_71.1.2.3.4 Bus2=F1_78.1.2.3.4 phases=4 Linecode=LC1 Length=1.0838 Units=m
New Line.F1_LINE78 Bus1=F1_72.1.2.3.4 Bus2=F1_79.1.2.3.4 phases=4 Linecode=LC3 Length=2.3008 Units=m
New Line.F1_LINE79 Bus1=F1_75.1.2.3.4 Bus2=F1_80.1.2.3.4 phases=4 Linecode=LC3 Length=0.10362 Units=m
New Line.F1_LINE80 Bus1=F1_76.1.2.3.4 Bus2=F1_81.1.2.3.4 phases=4 Linecode=LC7 Length=0.7469 Units=m
New Line.F1_LINE81 Bus1=F1_77.1.2.3.4 Bus2=F1_82.1.2.3.4 phases=4 Linecode=LC6 Length=0.51088 Units=m
New Line.F1_LINE82 Bus1=F1_78.1.2.3.4 Bus2=F1_83.1.2.3.4 phases=4 Linecode=LC1 Length=4.084 Units=m
New Line.F1_LINE83 Bus1=F1_79.1.2.3.4 Bus2=F1_84.1.2.3.4 phases=4 Linecode=LC3 Length=0.50211 Units=m
New Line.F1_LINE84 Bus1=F1_80.1.2.3.4 Bus2=F1_85.1.2.3.4 phases=4 Linecode=LC3 Length=0.11122 Units=m
New Line.F1_LINE85 Bus1=F1_81.1.2.3.4 Bus2=F1_86.1.2.3.4 phases=4 Linecode=LC7 Length=1.4388 Units=m
New Line.F1_LINE86 Bus1=F1_82.1.2.3.4 Bus2=F1_87.1.2.3.4 phases=4 Linecode=LC6 Length=0.31045 Units=m
New Line.F1_LINE87 Bus1=F1_84.1.2.3.4 Bus2=F1_88.1.2.3.4 phases=4 Linecode=LC3 Length=1.0182 Units=m
New Line.F1_LINE88 Bus1=F1_85.1.2.3.4 Bus2=F1_89.1.2.3.4 phases=4 Linecode=LC3 Length=0.1048 Units=m
New Line.F1_LINE89 Bus1=F1_86.1.2.3.4 Bus2=F1_90.1.2.3.4 phases=4 Linecode=LC7 Length=0.34251 Units=m
New Line.F1_LINE90 Bus1=F1_87.1.2.3.4 Bus2=F1_91.1.2.3.4 phases=4 Linecode=LC6 Length=0.11206 Units=m
New Line.F1_LINE91 Bus1=F1_88.1.2.3.4 Bus2=F1_92.1.2.3.4 phases=4 Linecode=LC3 Length=0.96021 Units=m
New Line.F1_LINE92 Bus1=F1_90.1.2.3.4 Bus2=F1_93.1.2.3.4 phases=4 Linecode=LC7 Length=0.065307 Units=m
New Line.F1_LINE93 Bus1=F1_91.1.2.3.4 Bus2=F1_94.1.2.3.4 phases=4 Linecode=LC6 Length=0.034785 Units=m
New Line.F1_LINE94 Bus1=F1_92.1.2.3.4 Bus2=F1_95.1.2.3.4 phases=4 Linecode=LC3 Length=0.55811 Units=m
New Line.F1_LINE95 Bus1=F1_93.1.2.3.4 Bus2=F1_96.1.2.3.4 phases=4 Linecode=LC7 Length=0.086052 Units=m
New Line.F1_LINE96 Bus1=F1_94.1.2.3.4 Bus2=F1_97.1.2.3.4 phases=4 Linecode=LC6 Length=0.03677 Units=m
New Line.F1_LINE97 Bus1=F1_95.1.2.3.4 Bus2=F1_98.1.2.3.4 phases=4 Linecode=LC3 Length=0.36859 Units=m
New Line.F1_LINE98 Bus1=F1_96.1.2.3.4 Bus2=F1_99.1.2.3.4 phases=4 Linecode=LC7 Length=0.037216 Units=m
New Line.F1_LINE99 Bus1=F1_97.1.2.3.4 Bus2=F1_100.1.2.3.4 phases=4 Linecode=LC6 Length=0.089588 Units=m
New Line.F1_LINE100 Bus1=F1_98.1.2.3.4 Bus2=F1_101.1.2.3.4 phases=4 Linecode=LC3 Length=0.50892 Units=m
New Line.F1_LINE101 Bus1=F1_99.1.2.3.4 Bus2=F1_102.1.2.3.4 phases=4 Linecode=LC7 Length=5.0819 Units=m
New Line.F1_LINE102 Bus1=F1_100.1.2.3.4 Bus2=F1_103.1.2.3.4 phases=4 Linecode=LC6 Length=0.28583 Units=m
New Line.F1_LINE103 Bus1=F1_101.1.2.3.4 Bus2=F1_104.1.2.3.4 phases=4 Linecode=LC8 Length=0.28838 Units=m
New Line.F1_LINE104 Bus1=F1_101.1.2.3.4 Bus2=F1_105.1.2.3.4 phases=4 Linecode=LC3 Length=0.33602 Units=m
New Line.F1_LINE105 Bus1=F1_102.1.2.3.4 Bus2=F1_106.1.2.3.4 phases=4 Linecode=LC7 Length=0.22108 Units=m
New Line.F1_LINE106 Bus1=F1_104.1.2.3.4 Bus2=F1_107.1.2.3.4 phases=4 Linecode=LC8 Length=0.3489 Units=m
New Line.F1_LINE107 Bus1=F1_105.1.2.3.4 Bus2=F1_108.1.2.3.4 phases=4 Linecode=LC3 Length=0.19054 Units=m
New Line.F1_LINE108 Bus1=F1_106.1.2.3.4 Bus2=F1_109.1.2.3.4 phases=4 Linecode=LC7 Length=0.45085 Units=m
New Line.F1_LINE109 Bus1=F1_107.1.2.3.4 Bus2=F1_110.1.2.3.4 phases=4 Linecode=LC8 Length=0.4044 Units=m
New Line.F1_LINE110 Bus1=F1_108.1.2.3.4 Bus2=F1_111.1.2.3.4 phases=4 Linecode=LC3 Length=7.5182 Units=m
New Line.F1_LINE111 Bus1=F1_109.1.2.3.4 Bus2=F1_112.1.2.3.4 phases=4 Linecode=LC7 Length=11.9766 Units=m
New Line.F1_LINE112 Bus1=F1_110.1.2.3.4 Bus2=F1_113.1.2.3.4 phases=4 Linecode=LC8 Length=0.61659 Units=m
New Line.F1_LINE113 Bus1=F1_111.1.2.3.4 Bus2=F1_114.1.2.3.4 phases=4 Linecode=LC3 Length=0.75316 Units=m
New Line.F1_LINE114 Bus1=F1_112.1.2.3.4 Bus2=F1_115.1.2.3.4 phases=4 Linecode=LC7 Length=10.6613 Units=m
New Line.F1_LINE115 Bus1=F1_113.1.2.3.4 Bus2=F1_116.1.2.3.4 phases=4 Linecode=LC8 Length=0.79271 Units=m
New Line.F1_LINE116 Bus1=F1_114.1.2.3.4 Bus2=F1_117.1.2.3.4 phases=4 Linecode=LC8 Length=1.1056 Units=m
New Line.F1_LINE117 Bus1=F1_114.1.2.3.4 Bus2=F1_118.1.2.3.4 phases=4 Linecode=LC4 Length=3.6556 Units=m
New Line.F1_LINE118 Bus1=F1_115.1.2.3.4 Bus2=F1_119.1.2.3.4 phases=4 Linecode=LC7 Length=0.99464 Units=m
New Line.F1_LINE119 Bus1=F1_116.1.2.3.4 Bus2=F1_120.1.2.3.4 phases=4 Linecode=LC8 Length=0.56909 Units=m
New Line.F1_LINE120 Bus1=F1_117.1.2.3.4 Bus2=F1_121.1.2.3.4 phases=4 Linecode=LC6 Length=0.19481 Units=m
New Line.F1_LINE121 Bus1=F1_117.1.2.3.4 Bus2=F1_122.1.2.3.4 phases=4 Linecode=LC8 Length=0.53831 Units=m
New Line.F1_LINE122 Bus1=F1_118.1.2.3.4 Bus2=F1_123.1.2.3.4 phases=4 Linecode=LC4 Length=6.5924 Units=m
New Line.F1_LINE123 Bus1=F1_119.1.2.3.4 Bus2=F1_124.1.2.3.4 phases=4 Linecode=LC7 Length=0.7248 Units=m
New Line.F1_LINE124 Bus1=F1_120.1.2.3.4 Bus2=F1_125.1.2.3.4 phases=4 Linecode=LC8 Length=0.80412 Units=m
New Line.F1_LINE125 Bus1=F1_121.1.2.3.4 Bus2=F1_126.1.2.3.4 phases=4 Linecode=LC6 Length=0.16869 Units=m
New Line.F1_LINE126 Bus1=F1_122.1.2.3.4 Bus2=F1_127.1.2.3.4 phases=4 Linecode=LC8 Length=2.5288 Units=m
New Line.F1_LINE127 Bus1=F1_123.1.2.3.4 Bus2=F1_128.1.2.3.4 phases=4 Linecode=LC4 Length=2.9646 Units=m
New Line.F1_LINE128 Bus1=F1_124.1.2.3.4 Bus2=F1_129.1.2.3.4 phases=4 Linecode=LC7 Length=0.62512 Units=m
New Line.F1_LINE129 Bus1=F1_125.1.2.3.4 Bus2=F1_130.1.2.3.4 phases=4 Linecode=LC8 Length=0.87 Units=m
New Line.F1_LINE130 Bus1=F1_126.1.2.3.4 Bus2=F1_131.1.2.3.4 phases=4 Linecode=LC6 Length=0.11915 Units=m
New Line.F1_LINE131 Bus1=F1_127.1.2.3.4 Bus2=F1_132.1.2.3.4 phases=4 Linecode=LC1 Length=3.8212 Units=m
New Line.F1_LINE132 Bus1=F1_127.1.2.3.4 Bus2=F1_133.1.2.3.4 phases=4 Linecode=LC8 Length=7.1782 Units=m
New Line.F1_LINE133 Bus1=F1_128.1.2.3.4 Bus2=F1_134.1.2.3.4 phases=4 Linecode=LC4 Length=0.88205 Units=m
New Line.F1_LINE134 Bus1=F1_129.1.2.3.4 Bus2=F1_135.1.2.3.4 phases=4 Linecode=LC7 Length=1.9203 Units=m
New Line.F1_LINE135 Bus1=F1_130.1.2.3.4 Bus2=F1_136.1.2.3.4 phases=4 Linecode=LC8 Length=0.82048 Units=m
New Line.F1_LINE136 Bus1=F1_131.1.2.3.4 Bus2=F1_137.1.2.3.4 phases=4 Linecode=LC6 Length=0.18436 Units=m
New Line.F1_LINE137 Bus1=F1_132.1.2.3.4 Bus2=F1_138.1.2.3.4 phases=4 Linecode=LC1 Length=0.32908 Units=m
New Line.F1_LINE138 Bus1=F1_133.1.2.3.4 Bus2=F1_139.1.2.3.4 phases=4 Linecode=LC8 Length=5.3402 Units=m
New Line.F1_LINE139 Bus1=F1_134.1.2.3.4 Bus2=F1_140.1.2.3.4 phases=4 Linecode=LC4 Length=0.99566 Units=m
New Line.F1_LINE140 Bus1=F1_135.1.2.3.4 Bus2=F1_141.1.2.3.4 phases=4 Linecode=LC7 Length=1.4127 Units=m
New Line.F1_LINE141 Bus1=F1_136.1.2.3.4 Bus2=F1_142.1.2.3.4 phases=4 Linecode=LC8 Length=1.349 Units=m
New Line.F1_LINE142 Bus1=F1_137.1.2.3.4 Bus2=F1_143.1.2.3.4 phases=4 Linecode=LC6 Length=0.21781 Units=m
New Line.F1_LINE143 Bus1=F1_138.1.2.3.4 Bus2=F1_144.1.2.3.4 phases=4 Linecode=LC1 Length=0.32289 Units=m
New Line.F1_LINE144 Bus1=F1_139.1.2.3.4 Bus2=F1_145.1.2.3.4 phases=4 Linecode=LC8 Length=3.5762 Units=m
New Line.F1_LINE145 Bus1=F1_140.1.2.3.4 Bus2=F1_146.1.2.3.4 phases=4 Linecode=LC4 Length=0.9364 Units=m
New Line.F1_LINE146 Bus1=F1_141.1.2.3.4 Bus2=F1_147.1.2.3.4 phases=4 Linecode=LC7 Length=0.24053 Units=m
New Line.F1_LINE147 Bus1=F1_142.1.2.3.4 Bus2=F1_148.1.2.3.4 phases=4 Linecode=LC8 Length=6.4142 Units=m
New Line.F1_LINE148 Bus1=F1_143.1.2.3.4 Bus2=F1_149.1.2.3.4 phases=4 Linecode=LC6 Length=0.19401 Units=m
New Line.F1_LINE149 Bus1=F1_144.1.2.3.4 Bus2=F1_150.1.2.3.4 phases=4 Linecode=LC1 Length=0.26072 Units=m
New Line.F1_LINE150 Bus1=F1_145.1.2.3.4 Bus2=F1_151.1.2.3.4 phases=4 Linecode=LC8 Length=3.5713 Units=m
New Line.F1_LINE151 Bus1=F1_145.1.2.3.4 Bus2=F1_152.1.2.3.4 phases=4 Linecode=LC1 Length=5.1314 Units=m
New Line.F1_LINE152 Bus1=F1_146.1.2.3.4 Bus2=F1_153.1.2.3.4 phases=4 Linecode=LC4 Length=1.0926 Units=m
New Line.F1_LINE153 Bus1=F1_147.1.2.3.4 Bus2=F1_154.1.2.3.4 phases=4 Linecode=LC7 Length=0.083096 Units=m
New Line.F1_LINE154 Bus1=F1_148.1.2.3.4 Bus2=F1_155.1.2.3.4 phases=4 Linecode=LC8 Length=1.3973 Units=m
New Line.F1_LINE155 Bus1=F1_149.1.2.3.4 Bus2=F1_156.1.2.3.4 phases=4 Linecode=LC6 Length=0.2191 Units=m
New Line.F1_LINE156 Bus1=F1_150.1.2.3.4 Bus2=F1_157.1.2.3.4 phases=4 Linecode=LC1 Length=0.39132 Units=m
New Line.F1_LINE157 Bus1=F1_151.1.2.3.4 Bus2=F1_158.1.2.3.4 phases=4 Linecode=LC8 Length=9.4713 Units=m
New Line.F1_LINE158 Bus1=F1_152.1.2.3.4 Bus2=F1_159.1.2.3.4 phases=4 Linecode=LC1 Length=0.31233 Units=m
New Line.F1_LINE159 Bus1=F1_153.1.2.3.4 Bus2=F1_160.1.2.3.4 phases=4 Linecode=LC4 Length=0.31439 Units=m
New Line.F1_LINE160 Bus1=F1_154.1.2.3.4 Bus2=F1_161.1.2.3.4 phases=4 Linecode=LC7 Length=0.12256 Units=m
New Line.F1_LINE161 Bus1=F1_155.1.2.3.4 Bus2=F1_162.1.2.3.4 phases=4 Linecode=LC1 Length=11.7422 Units=m
New Line.F1_LINE162 Bus1=F1_155.1.2.3.4 Bus2=F1_163.1.2.3.4 phases=4 Linecode=LC8 Length=5.2844 Units=m
New Line.F1_LINE163 Bus1=F1_156.1.2.3.4 Bus2=F1_164.1.2.3.4 phases=4 Linecode=LC6 Length=0.20342 Units=m
New Line.F1_LINE164 Bus1=F1_157.1.2.3.4 Bus2=F1_165.1.2.3.4 phases=4 Linecode=LC1 Length=0.47178 Units=m
New Line.F1_LINE165 Bus1=F1_158.1.2.3.4 Bus2=F1_166.1.2.3.4 phases=4 Linecode=LC8 Length=3.2899 Units=m
New Line.F1_LINE166 Bus1=F1_159.1.2.3.4 Bus2=F1_167.1.2.3.4 phases=4 Linecode=LC1 Length=0.28533 Units=m
New Line.F1_LINE167 Bus1=F1_160.1.2.3.4 Bus2=F1_168.1.2.3.4 phases=4 Linecode=LC4 Length=1.7861 Units=m
New Line.F1_LINE168 Bus1=F1_161.1.2.3.4 Bus2=F1_169.1.2.3.4 phases=4 Linecode=LC7 Length=0.24958 Units=m
New Line.F1_LINE169 Bus1=F1_162.1.2.3.4 Bus2=F1_170.1.2.3.4 phases=4 Linecode=LC1 Length=2.2183 Units=m
New Line.F1_LINE170 Bus1=F1_163.1.2.3.4 Bus2=F1_171.1.2.3.4 phases=4 Linecode=LC8 Length=7.0156 Units=m
New Line.F1_LINE171 Bus1=F1_164.1.2.3.4 Bus2=F1_172.1.2.3.4 phases=4 Linecode=LC6 Length=0.1727 Units=m
New Line.F1_LINE172 Bus1=F1_165.1.2.3.4 Bus2=F1_173.1.2.3.4 phases=4 Linecode=LC1 Length=0.35642 Units=m
New Line.F1_LINE173 Bus1=F1_166.1.2.3.4 Bus2=F1_174.1.2.3.4 phases=4 Linecode=LC8 Length=3.9183 Units=m
New Line.F1_LINE174 Bus1=F1_166.1.2.3.4 Bus2=F1_175.1.2.3.4 phases=4 Linecode=LC1 Length=4.2045 Units=m
New Line.F1_LINE175 Bus1=F1_167.1.2.3.4 Bus2=F1_176.1.2.3.4 phases=4 Linecode=LC1 Length=0.11853 Units=m
New Line.F1_LINE176 Bus1=F1_168.1.2.3.4 Bus2=F1_177.1.2.3.4 phases=4 Linecode=LC4 Length=1.0088 Units=m
New Line.F1_LINE177 Bus1=F1_170.1.2.3.4 Bus2=F1_178.1.2.3.4 phases=4 Linecode=LC1 Length=4.5768 Units=m
New Line.F1_LINE178 Bus1=F1_171.1.2.3.4 Bus2=F1_179.1.2.3.4 phases=4 Linecode=LC8 Length=1.1818 Units=m
New Line.F1_LINE179 Bus1=F1_171.1.2.3.4 Bus2=F1_180.1.2.3.4 phases=4 Linecode=LC1 Length=2.4224 Units=m
New Line.F1_LINE180 Bus1=F1_172.1.2.3.4 Bus2=F1_181.1.2.3.4 phases=4 Linecode=LC6 Length=0.17961 Units=m
New Line.F1_LINE181 Bus1=F1_173.1.2.3.4 Bus2=F1_182.1.2.3.4 phases=4 Linecode=LC1 Length=0.41244 Units=m
New Line.F1_LINE182 Bus1=F1_174.1.2.3.4 Bus2=F1_183.1.2.3.4 phases=4 Linecode=LC8 Length=0.58763 Units=m
New Line.F1_LINE183 Bus1=F1_175.1.2.3.4 Bus2=F1_184.1.2.3.4 phases=4 Linecode=LC1 Length=0.45409 Units=m
New Line.F1_LINE184 Bus1=F1_176.1.2.3.4 Bus2=F1_185.1.2.3.4 phases=4 Linecode=LC1 Length=0.25549 Units=m
New Line.F1_LINE185 Bus1=F1_177.1.2.3.4 Bus2=F1_186.1.2.3.4 phases=4 Linecode=LC4 Length=0.74886 Units=m
New Line.F1_LINE186 Bus1=F1_179.1.2.3.4 Bus2=F1_187.1.2.3.4 phases=4 Linecode=LC8 Length=4.6507 Units=m
New Line.F1_LINE187 Bus1=F1_180.1.2.3.4 Bus2=F1_188.1.2.3.4 phases=4 Linecode=LC1 Length=10.0258 Units=m
New Line.F1_LINE188 Bus1=F1_181.1.2.3.4 Bus2=F1_189.1.2.3.4 phases=4 Linecode=LC6 Length=0.15412 Units=m
New Line.F1_LINE189 Bus1=F1_182.1.2.3.4 Bus2=F1_190.1.2.3.4 phases=4 Linecode=LC1 Length=0.3878 Units=m
New Line.F1_LINE190 Bus1=F1_183.1.2.3.4 Bus2=F1_191.1.2.3.4 phases=4 Linecode=LC8 Length=2.3151 Units=m
New Line.F1_LINE191 Bus1=F1_183.1.2.3.4 Bus2=F1_192.1.2.3.4 phases=4 Linecode=LC8 Length=0.27791 Units=m
New Line.F1_LINE192 Bus1=F1_184.1.2.3.4 Bus2=F1_193.1.2.3.4 phases=4 Linecode=LC1 Length=0.43923 Units=m
New Line.F1_LINE193 Bus1=F1_185.1.2.3.4 Bus2=F1_194.1.2.3.4 phases=4 Linecode=LC1 Length=0.65073 Units=m
New Line.F1_LINE194 Bus1=F1_186.1.2.3.4 Bus2=F1_195.1.2.3.4 phases=4 Linecode=LC4 Length=0.67326 Units=m
New Line.F1_LINE195 Bus1=F1_187.1.2.3.4 Bus2=F1_196.1.2.3.4 phases=4 Linecode=LC8 Length=8.3036 Units=m
New Line.F1_LINE196 Bus1=F1_188.1.2.3.4 Bus2=F1_197.1.2.3.4 phases=4 Linecode=LC1 Length=1.9595 Units=m
New Line.F1_LINE197 Bus1=F1_188.1.2.3.4 Bus2=F1_198.1.2.3.4 phases=4 Linecode=LC1 Length=1.1325 Units=m
New Line.F1_LINE198 Bus1=F1_189.1.2.3.4 Bus2=F1_199.1.2.3.4 phases=4 Linecode=LC6 Length=0.19148 Units=m
New Line.F1_LINE199 Bus1=F1_190.1.2.3.4 Bus2=F1_200.1.2.3.4 phases=4 Linecode=LC1 Length=0.41725 Units=m
...
! ----------------------------------------------------------------------------------------------




! Feeder 2
! Imported from Lines.txt, with modified linecodes
! ----------------------------------------------------------------------------------------------
New Line.F2_LINE0 Bus1=Tx1.1.2.3.4 Bus2=F2_1.1.2.3.4 phases=4 Linecode=LC3 Length=1 Units=m
New Line.F2_LINE1 Bus1=F2_1.1.2.3.4 Bus2=F2_2.1.2.3.4 phases=4 Linecode=LC3 Length=1.2678 Units=m
New Line.F2_LINE2 Bus1=F2_2.1.2.3.4 Bus2=F2_3.1.2.3.4 phases=4 Linecode=LC3 Length=0.14701 Units=m
New Line.F2_LINE3 Bus1=F2_3.1.2.3.4 Bus2=F2_4.1.2.3.4 phases=4 Linecode=LC3 Length=0.11539 Units=m
New Line.F2_LINE4 Bus1=F2_4.1.2.3.4 Bus2=F2_5.1.2.3.4 phases=4 Linecode=LC3 Length=0.091935 Units=m
New Line.F2_LINE5 Bus1=F2_5.1.2.3.4 Bus2=F2_6.1.2.3.4 phases=4 Linecode=LC3 Length=0.10826 Units=m
New Line.F2_LINE6 Bus1=F2_6.1.2.3.4 Bus2=F2_7.1.2.3.4 phases=4 Linecode=LC3 Length=10.9021 Units=m
New Line.F2_LINE7 Bus1=F2_7.1.2.3.4 Bus2=F2_8.1.2.3.4 phases=4 Linecode=LC3 Length=0.40028 Units=m
New Line.F2_LINE8 Bus1=F2_8.1.2.3.4 Bus2=F2_9.1.2.3.4 phases=4 Linecode=LC3 Length=0.298 Units=m
New Line.F2_LINE9 Bus1=F2_9.1.2.3.4 Bus2=F2_10.1.2.3.4 phases=4 Linecode=LC3 Length=0.37317 Units=m
New Line.F2_LINE10 Bus1=F2_10.1.2.3.4 Bus2=F2_11.1.2.3.4 phases=4 Linecode=LC3 Length=0.39461 Units=m
New Line.F2_LINE11 Bus1=F2_11.1.2.3.4 Bus2=F2_12.1.2.3.4 phases=4 Linecode=LC3 Length=0.35891 Units=m
New Line.F2_LINE12 Bus1=F2_12.1.2.3.4 Bus2=F2_13.1.2.3.4 phases=4 Linecode=LC3 Length=0.43804 Units=m
New Line.F2_LINE13 Bus1=F2_13.1.2.3.4 Bus2=F2_14.1.2.3.4 phases=4 Linecode=LC3 Length=7.3529 Units=m
New Line.F2_LINE14 Bus1=F2_14.1.2.3.4 Bus2=F2_15.1.2.3.4 phases=4 Linecode=LC3 Length=11.2962 Units=m
New Line.F2_LINE15 Bus1=F2_15.1.2.3.4 Bus2=F2_16.1.2.3.4 phases=4 Linecode=LC3 Length=3.6224 Units=m
New Line.F2_LINE16 Bus1=F2_16.1.2.3.4 Bus2=F2_17.1.2.3.4 phases=4 Linecode=LC3 Length=0.31933 Units=m
New Line.F2_LINE17 Bus1=F2_16.1.2.3.4 Bus2=F2_18.1.2.3.4 phases=4 Linecode=LC3 Length=3.9213 Units=m
New Line.F2_LINE18 Bus1=F2_17.1.2.3.4 Bus2=F2_19.1.2.3.4 phases=4 Linecode=LC3 Length=0.09014 Units=m
New Line.F2_LINE19 Bus1=F2_18.1.2.3.4 Bus2=F2_20.1.2.3.4 phases=4 Linecode=LC3 Length=6.5359 Units=m
New Line.F2_LINE20 Bus1=F2_19.1.2.3.4 Bus2=F2_21.1.2.3.4 phases=4 Linecode=LC3 Length=0.095854 Units=m
New Line.F2_LINE21 Bus1=F2_20.1.2.3.4 Bus2=F2_22.1.2.3.4 phases=4 Linecode=LC3 Length=0.10668 Units=m
New Line.F2_LINE22 Bus1=F2_21.1.2.3.4 Bus2=F2_23.1.2.3.4 phases=4 Linecode=LC3 Length=0.076118 Units=m
New Line.F2_LINE23 Bus1=F2_22.1.2.3.4 Bus2=F2_24.1.2.3.4 phases=4 Linecode=LC3 Length=0.201 Units=m
New Line.F2_LINE24 Bus1=F2_23.1.2.3.4 Bus2=F2_25.1.2.3.4 phases=4 Linecode=LC3 Length=0.138 Units=m
New Line.F2_LINE25 Bus1=F2_24.1.2.3.4 Bus2=F2_26.1.2.3.4 phases=4 Linecode=LC3 Length=0.15048 Units=m
New Line.F2_LINE26 Bus1=F2_25.1.2.3.4 Bus2=F2_27.1.2.3.4 phases=4 Linecode=LC3 Length=0.29149 Units=m
New Line.F2_LINE27 Bus1=F2_26.1.2.3.4 Bus2=F2_28.1.2.3.4 phases=4 Linecode=LC3 Length=0.18296 Units=m
New Line.F2_LINE28 Bus1=F2_27.1.2.3.4 Bus2=F2_29.1.2.3.4 phases=4 Linecode=LC3 Length=5.9092 Units=m
New Line.F2_LINE29 Bus1=F2_28.1.2.3.4 Bus2=F2_30.1.2.3.4 phases=4 Linecode=LC3 Length=0.22495 Units=m
New Line.F2_LINE30 Bus1=F2_29.1.2.3.4 Bus2=F2_31.1.2.3.4 phases=4 Linecode=LC3 Length=0.615 Units=m
New Line.F2_LINE31 Bus1=F2_30.1.2.3.4 Bus2=F2_32.1.2.3.4 phases=4 Linecode=LC3 Length=0.18524 Units=m
New Line.F2_LINE32 Bus1=F2_32.1.2.3.4 Bus2=F2_33.1.2.3.4 phases=4 Linecode=LC3 Length=0.30245 Units=m
New Line.F2_LINE33 Bus1=F2_33.1.2.3.4 Bus2=F2_34.1.2.3.4 phases=4 Linecode=LC3 Length=0.27631 Units=m
New Line.F2_LINE34 Bus1=F2_34.1.2.3.4 Bus2=F2_35.1.2.3.4 phases=4 Linecode=LC3 Length=0.29119 Units=m
New Line.F2_LINE35 Bus1=F2_35.1.2.3.4 Bus2=F2_36.1.2.3.4 phases=4 Linecode=LC3 Length=0.068154 Units=m
New Line.F2_LINE36 Bus1=F2_36.1.2.3.4 Bus2=F2_37.1.2.3.4 phases=4 Linecode=LC3 Length=0.16313 Units=m
New Line.F2_LINE37 Bus1=F2_37.1.2.3.4 Bus2=F2_38.1.2.3.4 phases=4 Linecode=LC3 Length=0.39768 Units=m
New Line.F2_LINE38 Bus1=F2_38.1.2.3.4 Bus2=F2_39.1.2.3.4 phases=4 Linecode=LC3 Length=7.942 Units=m
New Line.F2_LINE39 Bus1=F2_39.1.2.3.4 Bus2=F2_40.1.2.3.4 phases=4 Linecode=LC3 Length=1.8421 Units=m
New Line.F2_LINE40 Bus1=F2_40.1.2.3.4 Bus2=F2_41.1.2.3.4 phases=4 Linecode=LC3 Length=0.52269 Units=m
New Line.F2_LINE41 Bus1=F2_40.1.2.3.4 Bus2=F2_42.1.2.3.4 phases=4 Linecode=LC3 Length=2.3487 Units=m
New Line.F2_LINE42 Bus1=F2_42.1.2.3.4 Bus2=F2_43.1.2.3.4 phases=4 Linecode=LC3 Length=0.45549 Units=m
New Line.F2_LINE43 Bus1=F2_43.1.2.3.4 Bus2=F2_44.1.2.3.4 phases=4 Linecode=LC3 Length=0.38293 Units=m
New Line.F2_LINE44 Bus1=F2_44.1.2.3.4 Bus2=F2_45.1.2.3.4 phases=4 Linecode=LC3 Length=0.42216 Units=m
New Line.F2_LINE45 Bus1=F2_45.1.2.3.4 Bus2=F2_46.1.2.3.4 phases=4 Linecode=LC3 Length=0.48601 Units=m
New Line.F2_LINE46 Bus1=F2_46.1.2.3.4 Bus2=F2_47.1.2.3.4 phases=4 Linecode=LC3 Length=0.7176 Units=m
New Line.F2_LINE47 Bus1=F2_47.1.2.3.4 Bus2=F2_48.1.2.3.4 phases=4 Linecode=LC3 Length=0.54623 Units=m
New Line.F2_LINE48 Bus1=F2_48.1.2.3.4 Bus2=F2_49.1.2.3.4 phases=4 Linecode=LC3 Length=0.47164 Units=m
New Line.F2_LINE49 Bus1=F2_49.1.2.3.4 Bus2=F2_50.1.2.3.4 phases=4 Linecode=LC3 Length=0.30936 Units=m
New Line.F2_LINE50 Bus1=F2_50.1.2.3.4 Bus2=F2_51.1.2.3.4 phases=4 Linecode=LC3 Length=0.3128 Units=m
New Line.F2_LINE51 Bus1=F2_51.1.2.3.4 Bus2=F2_52.1.2.3.4 phases=4 Linecode=LC3 Length=0.35569 Units=m
New Line.F2_LINE52 Bus1=F2_52.1.2.3.4 Bus2=F2_53.1.2.3.4 phases=4 Linecode=LC3 Length=0.65323 Units=m
New Line.F2_LINE53 Bus1=F2_53.1.2.3.4 Bus2=F2_54.1.2.3.4 phases=4 Linecode=LC3 Length=5.6025 Units=m
New Line.F2_LINE54 Bus1=F2_54.1.2.3.4 Bus2=F2_55.1.2.3.4 phases=4 Linecode=LC3 Length=0.16388 Units=m
New Line.F2_LINE55 Bus1=F2_55.1.2.3.4 Bus2=F2_56.1.2.3.4 phases=4 Linecode=LC3 Length=0.22588 Units=m
New Line.F2_LINE56 Bus1=F2_56.1.2.3.4 Bus2=F2_57.1.2.3.4 phases=4 Linecode=LC3 Length=0.23492 Units=m
New Line.F2_LINE57 Bus1=F2_57.1.2.3.4 Bus2=F2_58.1.2.3.4 phases=4 Linecode=LC3 Length=0.19624 Units=m
New Line.F2_LINE58 Bus1=F2_58.1.2.3.4 Bus2=F2_59.1.2.3.4 phases=4 Linecode=LC3 Length=0.28481 Units=m
New Line.F2_LINE59 Bus1=F2_59.1.2.3.4 Bus2=F2_60.1.2.3.4 phases=4 Linecode=LC3 Length=0.30895 Units=m
New Line.F2_LINE60 Bus1=F2_60.1.2.3.4 Bus2=F2_61.1.2.3.4 phases=4 Linecode=LC3 Length=0.34812 Units=m
New Line.F2_LINE61 Bus1=F2_61.1.2.3.4 Bus2=F2_62.1.2.3.4 phases=4 Linecode=LC3 Length=0.3491 Units=m
New Line.F2_LINE62 Bus1=F2_62.1.2.3.4 Bus2=F2_63.1.2.3.4 phases=4 Linecode=LC3 Length=0.24452 Units=m
New Line.F2_LINE63 Bus1=F2_63.1.2.3.4 Bus2=F2_64.1.2.3.4 phases=4 Linecode=LC3 Length=0.326 Units=m
New Line.F2_LINE64 Bus1=F2_64.1.2.3.4 Bus2=F2_65.1.2.3.4 phases=4 Linecode=LC3 Length=0.601 Units=m
New Line.F2_LINE65 Bus1=F2_65.1.2.3.4 Bus2=F2_66.1.2.3.4 phases=4 Linecode=LC8 Length=0.47332 Units=m
New Line.F2_LINE66 Bus1=F2_65.1.2.3.4 Bus2=F2_67.1.2.3.4 phases=4 Linecode=LC4 Length=4.28 Units=m
New Line.F2_LINE67 Bus1=F2_66.1.2.3.4 Bus2=F2_68.1.2.3.4 phases=4 Linecode=LC8 Length=0.72048 Units=m
New Line.F2_LINE68 Bus1=F2_67.1.2.3.4 Bus2=F2_69.1.2.3.4 phases=4 Linecode=LC4 Length=0.642 Units=m
New Line.F2_LINE69 Bus1=F2_67.1.2.3.4 Bus2=F2_70.1.2.3.4 phases=4 Linecode=LC4 Length=5.9972 Units=m
New Line.F2_LINE70 Bus1=F2_68.1.2.3.4 Bus2=F2_71.1.2.3.4 phases=4 Linecode=LC8 Length=1.0686 Units=m
New Line.F2_LINE71 Bus1=F2_70.1.2.3.4 Bus2=F2_72.1.2.3.4 phases=4 Linecode=LC4 Length=0.68171 Units=m
New Line.F2_LINE72 Bus1=F2_70.1.2.3.4 Bus2=F2_73.1.2.3.4 phases=4 Linecode=LC4 Length=2.604 Units=m
New Line.F2_LINE73 Bus1=F2_71.1.2.3.4 Bus2=F2_74.1.2.3.4 phases=4 Linecode=LC8 Length=0.85425 Units=m
New Line.F2_LINE74 Bus1=F2_73.1.2.3.4 Bus2=F2_75.1.2.3.4 phases=4 Linecode=LC4 Length=0.64295 Units=m
New Line.F2_LINE75 Bus1=F2_73.1.2.3.4 Bus2=F2_76.1.2.3.4 phases=4 Linecode=LC4 Length=6.4225 Units=m
New Line.F2_LINE76 Bus1=F2_74.1.2.3.4 Bus2=F2_77.1.2.3.4 phases=4 Linecode=LC8 Length=0.79964 Units=m
New Line.F2_LINE77 Bus1=F2_76.1.2.3.4 Bus2=F2_78.1.2.3.4 phases=4 Linecode=LC4 Length=0.61537 Units=m
New Line.F2_LINE78 Bus1=F2_76.1.2.3.4 Bus2=F2_79.1.2.3.4 phases=4 Linecode=LC4 Length=0.71391 Units=m
New Line.F2_LINE79 Bus1=F2_77.1.2.3.4 Bus2=F2_80.1.2.3.4 phases=4 Linecode=LC8 Length=0.56945 Units=m
New Line.F2_LINE80 Bus1=F2_79.1.2.3.4 Bus2=F2_81.1.2.3.4 phases=4 Linecode=LC4 Length=0.57213 Units=m
New Line.F2_LINE81 Bus1=F2_79.1.2.3.4 Bus2=F2_82.1.2.3.4 phases=4 Linecode=LC4 Length=4.0611 Units=m
New Line.F2_LINE82 Bus1=F2_80.1.2.3.4 Bus2=F2_83.1.2.3.4 phases=4 Linecode=LC8 Length=0.4081 Units=m
New Line.F2_LINE83 Bus1=F2_82.1.2.3.4 Bus2=F2_84.1.2.3.4 phases=4 Linecode=LC4 Length=0.40328 Units=m
New Line.F2_LINE84 Bus1=F2_83.1.2.3.4 Bus2=F2_85.1.2.3.4 phases=4 Linecode=LC8 Length=0.391 Units=m
New Line.F2_LINE85 Bus1=F2_84.1.2.3.4 Bus2=F2_86.1.2.3.4 phases=4 Linecode=LC4 Length=1.0115 Units=m
New Line.F2_LINE86 Bus1=F2_85.1.2.3.4 Bus2=F2_87.1.2.3.4 phases=4 Linecode=LC8 Length=0.36271 Units=m
New Line.F2_LINE87 Bus1=F2_86.1.2.3.4 Bus2=F2_88.1.2.3.4 phases=4 Linecode=LC4 Length=0.575 Units=m
New Line.F2_LINE88 Bus1=F2_86.1.2.3.4 Bus2=F2_89.1.2.3.4 phases=4 Linecode=LC4 Length=4.9754 Units=m
New Line.F2_LINE89 Bus1=F2_87.1.2.3.4 Bus2=F2_90.1.2.3.4 phases=4 Linecode=LC8 Length=0.9651 Units=m
New Line.F2_LINE90 Bus1=F2_89.1.2.3.4 Bus2=F2_91.1.2.3.4 phases=4 Linecode=LC4 Length=0.60701 Units=m
New Line.F2_LINE91 Bus1=F2_89.1.2.3.4 Bus2=F2_92.1.2.3.4 phases=4 Linecode=LC4 Length=4.2035 Units=m
New Line.F2_LINE92 Bus1=F2_90.1.2.3.4 Bus2=F2_93.1.2.3.4 phases=4 Linecode=LC8 Length=0.24449 Units=m
New Line.F2_LINE93 Bus1=F2_90.1.2.3.4 Bus2=F2_94.1.2.3.4 phases=4 Linecode=LC8 Length=1.0592 Units=m
New Line.F2_LINE94 Bus1=F2_92.1.2.3.4 Bus2=F2_95.1.2.3.4 phases=4 Linecode=LC4 Length=0.56542 Units=m
New Line.F2_LINE95 Bus1=F2_92.1.2.3.4 Bus2=F2_96.1.2.3.4 phases=4 Linecode=LC4 Length=5.4418 Units=m
New Line.F2_LINE96 Bus1=F2_93.1.2.3.4 Bus2=F2_97.1.2.3.4 phases=4 Linecode=LC8 Length=0.22561 Units=m
New Line.F2_LINE97 Bus1=F2_94.1.2.3.4 Bus2=F2_98.1.2.3.4 phases=4 Linecode=LC8 Length=5.4917 Units=m
New Line.F2_LINE98 Bus1=F2_96.1.2.3.4 Bus2=F2_99.1.2.3.4 phases=4 Linecode=LC4 Length=0.534 Units=m
New Line.F2_LINE99 Bus1=F2_96.1.2.3.4 Bus2=F2_100.1.2.3.4 phases=4 Linecode=LC4 Length=2.4912 Units=m
New Line.F2_LINE100 Bus1=F2_97.1.2.3.4 Bus2=F2_101.1.2.3.4 phases=4 Linecode=LC8 Length=0.138 Units=m
New Line.F2_LINE101 Bus1=F2_98.1.2.3.4 Bus2=F2_102.1.2.3.4 phases=4 Linecode=LC8 Length=0.97602 Units=m
New Line.F2_LINE102 Bus1=F2_98.1.2.3.4 Bus2=F2_103.1.2.3.4 phases=4 Linecode=LC8 Length=3.9741 Units=m
New Line.F2_LINE103 Bus1=F2_100.1.2.3.4 Bus2=F2_104.1.2.3.4 phases=4 Linecode=LC4 Length=3.9957 Units=m
New Line.F2_LINE104 Bus1=F2_100.1.2.3.4 Bus2=F2_105.1.2.3.4 phases=4 Linecode=LC3 Length=0.12802 Units=m
New Line.F2_LINE105 Bus1=F2_101.1.2.3.4 Bus2=F2_106.1.2.3.4 phases=4 Linecode=LC8 Length=0.16744 Units=m
New Line.F2_LINE106 Bus1=F2_102.1.2.3.4 Bus2=F2_107.1.2.3.4 phases=4 Linecode=LC8 Length=0.22539 Units=m
New Line.F2_LINE107 Bus1=F2_103.1.2.3.4 Bus2=F2_108.1.2.3.4 phases=4 Linecode=LC2 Length=1.4417 Units=m
New Line.F2_LINE108 Bus1=F2_103.1.2.3.4 Bus2=F2_109.1.2.3.4 phases=4 Linecode=LC8 Length=6.2021 Units=m
New Line.F2_LINE109 Bus1=F2_104.1.2.3.4 Bus2=F2_110.1.2.3.4 phases=4 Linecode=LC4 Length=6.2731 Units=m
New Line.F2_LINE110 Bus1=F2_105.1.2.3.4 Bus2=F2_111.1.2.3.4 phases=4 Linecode=LC3 Length=0.14339 Units=m
New Line.F2_LINE111 Bus1=F2_106.1.2.3.4 Bus2=F2_112.1.2.3.4 phases=4 Linecode=LC8 Length=0.115 Units=m
New Line.F2_LINE112 Bus1=F2_107.1.2.3.4 Bus2=F2_113.1.2.3.4 phases=4 Linecode=LC8 Length=0.20822 Units=m
New Line.F2_LINE113 Bus1=F2_108.1.2.3.4 Bus2=F2_114.1.2.3.4 phases=4 Linecode=LC2 Length=0.11424 Units=m
New Line.F2_LINE114 Bus1=F2_109.1.2.3.4 Bus2=F2_115.1.2.3.4 phases=4 Linecode=LC1 Length=18.6333 Units=m
New Line.F2_LINE115 Bus1=F2_109.1.2.3.4 Bus2=F2_116.1.2.3.4 phases=4 Linecode=LC8 Length=3.71 Units=m
New Line.F2_LINE116 Bus1=F2_110.1.2.3.4 Bus2=F2_117.1.2.3.4 phases=4 Linecode=LC4 Length=6.8138 Units=m
New Line.F2_LINE117 Bus1=F2_111.1.2.3.4 Bus2=F2_118.1.2.3.4 phases=4 Linecode=LC3 Length=0.1651 Units=m
New Line.F2_LINE118 Bus1=F2_112.1.2.3.4 Bus2=F2_119.1.2.3.4 phases=4 Linecode=LC8 Length=0.16744 Units=m
New Line.F2_LINE119 Bus1=F2_113.1.2.3.4 Bus2=F2_120.1.2.3.4 phases=4 Linecode=LC8 Length=0.19026 Units=m
New Line.F2_LINE120 Bus1=F2_114.1.2.3.4 Bus2=F2_121.1.2.3.4 phases=4 Linecode=LC2 Length=0.11322 Units=m
New Line.F2_LINE121 Bus1=F2_116.1.2.3.4 Bus2=F2_122.1.2.3.4 phases=4 Linecode=LC8 Length=3.578 Units=m
New Line.F2_LINE122 Bus1=F2_117.1.2.3.4 Bus2=F2_123.1.2.3.4 phases=4 Linecode=LC4 Length=0.24502 Units=m
New Line.F2_LINE123 Bus1=F2_118.1.2.3.4 Bus2=F2_124.1.2.3.4 phases=4 Linecode=LC3 Length=0.18768 Units=m
New Line.F2_LINE124 Bus1=F2_119.1.2.3.4 Bus2=F2_125.1.2.3.4 phases=4 Linecode=LC8 Length=0.57446 Units=m
New Line.F2_LINE125 Bus1=F2_120.1.2.3.4 Bus2=F2_126.1.2.3.4 phases=4 Linecode=LC8 Length=0.16323 Units=m
New Line.F2_LINE126 Bus1=F2_121.1.2.3.4 Bus2=F2_127.1.2.3.4 phases=4 Linecode=LC2 Length=0.11428 Units=m
New Line.F2_LINE127 Bus1=F2_122.1.2.3.4 Bus2=F2_128.1.2.3.4 phases=4 Linecode=LC8 Length=2.0533 Units=m
New Line.F2_LINE128 Bus1=F2_123.1.2.3.4 Bus2=F2_129.1.2.3.4 phases=4 Linecode=LC4 Length=0.19025 Units=m
New Line.F2_LINE129 Bus1=F2_124.1.2.3.4 Bus2=F2_130.1.2.3.4 phases=4 Linecode=LC3 Length=0.18768 Units=m
New Line.F2_LINE130 Bus1=F2_126.1.2.3.4 Bus2=F2_131.1.2.3.4 phases=4 Linecode=LC8 Length=0.24887 Units=m
New Line.F2_LINE131 Bus1=F2_127.1.2.3.4 Bus2=F2_132.1.2.3.4 phases=4 Linecode=LC2 Length=0.11385 Units=m
New Line.F2_LINE132 Bus1=F2_128.1.2.3.4 Bus2=F2_133.1.2.3.4 phases=4 Linecode=LC8 Length=2.2731 Units=m
New Line.F2_LINE133 Bus1=F2_129.1.2.3.4 Bus2=F2_134.1.2.3.4 phases=4 Linecode=LC4 Length=0.12572 Units=m
New Line.F2_LINE134 Bus1=F2_130.1.2.3.4 Bus2=F2_135.1.2.3.4 phases=4 Linecode=LC3 Length=0.16026 Units=m
New Line.F2_LINE135 Bus1=F2_131.1.2.3.4 Bus2=F2_136.1.2.3.4 phases=4 Linecode=LC8 Length=0.71943 Units=m
New Line.F2_LINE136 Bus1=F2_132.1.2.3.4 Bus2=F2_137.1.2.3.4 phases=4 Linecode=LC2 Length=0.11455 Units=m
New Line.F2_LINE137 Bus1=F2_133.1.2.3.4 Bus2=F2_138.1.2.3.4 phases=4 Linecode=LC8 Length=7.6821 Units=m
New Line.F2_LINE138 Bus1=F2_134.1.2.3.4 Bus2=F2_139.1.2.3.4 phases=4 Linecode=LC4 Length=0.17913 Units=m
New Line.F2_LINE139 Bus1=F2_135.1.2.3.4 Bus2=F2_140.1.2.3.4 phases=4 Linecode=LC3 Length=0.098858 Units=m
New Line.F2_LINE140 Bus1=F2_137.1.2.3.4 Bus2=F2_141.1.2.3.4 phases=4 Linecode=LC2 Length=0.11332 Units=m
New Line.F2_LINE141 Bus1=F2_138.1.2.3.4 Bus2=F2_142.1.2.3.4 phases=4 Linecode=LC8 Length=1.5452 Units=m
New Line.F2_LINE142 Bus1=F2_139.1.2.3.4 Bus2=F2_143.1.2.3.4 phases=4 Linecode=LC4 Length=0.32023 Units=m
New Line.F2_LINE143 Bus1=F2_140.1.2.3.4 Bus2=F2_144.1.2.3.4 phases=4 Linecode=LC3 Length=0.10465 Units=m
New Line.F2_LINE144 Bus1=F2_141.1.2.3.4 Bus2=F2_145.1.2.3.4 phases=4 Linecode=LC2 Length=0.11378 Units=m
New Line.F2_LINE145 Bus1=F2_142.1.2.3.4 Bus2=F2_146.1.2.3.4 phases=4 Linecode=LC8 Length=0.32006 Units=m
New Line.F2_LINE146 Bus1=F2_143.1.2.3.4 Bus2=F2_147.1.2.3.4 phases=4 Linecode=LC3 Length=1.2044 Units=m
New Line.F2_LINE147 Bus1=F2_143.1.2.3.4 Bus2=F2_148.1.2.3.4 phases=4 Linecode=LC3 Length=0.25849 Units=m
New Line.F2_LINE148 Bus1=F2_144.1.2.3.4 Bus2=F2_149.1.2.3.4 phases=4 Linecode=LC3 Length=1.1303 Units=m
New Line.F2_LINE149 Bus1=F2_145.1.2.3.4 Bus2=F2_150.1.2.3.4 phases=4 Linecode=LC2 Length=0.11411 Units=m
New Line.F2_LINE150 Bus1=F2_146.1.2.3.4 Bus2=F2_151.1.2.3.4 phases=4 Linecode=LC8 Length=0.27351 Units=m
New Line.F2_LINE151 Bus1=F2_147.1.2.3.4 Bus2=F2_152.1.2.3.4 phases=4 Linecode=LC3 Length=0.9003 Units=m
New Line.F2_LINE152 Bus1=F2_148.1.2.3.4 Bus2=F2_153.1.2.3.4 phases=4 Linecode=LC3 Length=1.1967 Units=m
New Line.F2_LINE153 Bus1=F2_149.1.2.3.4 Bus2=F2_154.1.2.3.4 phases=4 Linecode=LC3 Length=5.0734 Units=m
New Line.F2_LINE154 Bus1=F2_151.1.2.3.4 Bus2=F2_155.1.2.3.4 phases=4 Linecode=LC8 Length=0.25111 Units=m
New Line.F2_LINE155 Bus1=F2_152.1.2.3.4 Bus2=F2_156.1.2.3.4 phases=4 Linecode=LC3 Length=1.0219 Units=m
New Line.F2_LINE156 Bus1=F2_153.1.2.3.4 Bus2=F2_157.1.2.3.4 phases=4 Linecode=LC3 Length=1.0863 Units=m
New Line.F2_LINE157 Bus1=F2_154.1.2.3.4 Bus2=F2_158.1.2.3.4 phases=4 Linecode=LC3 Length=0.35328 Units=m
New Line.F2_LINE158 Bus1=F2_155.1.2.3.4 Bus2=F2_159.1.2.3.4 phases=4 Linecode=LC8 Length=0.24535 Units=m
New Line.F2_LINE159 Bus1=F2_156.1.2.3.4 Bus2=F2_160.1.2.3.4 phases=4 Linecode=LC3 Length=0.816 Units=m
New Line.F2_LINE160 Bus1=F2_157.1.2.3.4 Bus2=F2_161.1.2.3.4 phases=4 Linecode=LC3 Length=2.8635 Units=m
New Line.F2_LINE161 Bus1=F2_158.1.2.3.4 Bus2=F2_162.1.2.3.4 phases=4 Linecode=LC3 Length=0.24444 Units=m
New Line.F2_LINE162 Bus1=F2_159.1.2.3.4 Bus2=F2_163.1.2.3.4 phases=4 Linecode=LC8 Length=0.32177 Units=m
New Line.F2_LINE163 Bus1=F2_160.1.2.3.4 Bus2=F2_164.1.2.3.4 phases=4 Linecode=LC3 Length=0.68062 Units=m
New Line.F2_LINE164 Bus1=F2_161.1.2.3.4 Bus2=F2_165.1.2.3.4 phases=4 Linecode=LC3 Length=6.5871 Units=m
New Line.F2_LINE165 Bus1=F2_162.1.2.3.4 Bus2=F2_166.1.2.3.4 phases=4 Linecode=LC3 Length=0.16586 Units=m
New Line.F2_LINE166 Bus1=F2_163.1.2.3.4 Bus2=F2_167.1.2.3.4 phases=4 Linecode=LC8 Length=0.39623 Units=m
New Line.F2_LINE167 Bus1=F2_164.1.2.3.4 Bus2=F2_168.1.2.3.4 phases=4 Linecode=LC3 Length=0.8392 Units=m
New Line.F2_LINE168 Bus1=F2_165.1.2.3.4 Bus2=F2_169.1.2.3.4 phases=4 Linecode=LC6 Length=7.3715 Units=m
New Line.F2_LINE169 Bus1=F2_165.1.2.3.4 Bus2=F2_170.1.2.3.4 phases=4 Linecode=LC3 Length=2.1281 Units=m
New Line.F2_LINE170 Bus1=F2_166.1.2.3.4 Bus2=F2_171.1.2.3.4 phases=4 Linecode=LC3 Length=0.3027 Units=m
New Line.F2_LINE171 Bus1=F2_167.1.2.3.4 Bus2=F2_172.1.2.3.4 phases=4 Linecode=LC8 Length=2.8593 Units=m
New Line.F2_LINE172 Bus1=F2_168.1.2.3.4 Bus2=F2_173.1.2.3.4 phases=4 Linecode=LC3 Length=0.90468 Units=m
New Line.F2_LINE173 Bus1=F2_169.1.2.3.4 Bus2=F2_174.1.2.3.4 phases=4 Linecode=LC6 Length=0.4837 Units=m
New Line.F2_LINE174 Bus1=F2_170.1.2.3.4 Bus2=F2_175.1.2.3.4 phases=4 Linecode=LC6 Length=7.2098 Units=m
New Line.F2_LINE175 Bus1=F2_170.1.2.3.4 Bus2=F2_176.1.2.3.4 phases=4 Linecode=LC3 Length=10.1945 Units=m
New Line.F2_LINE176 Bus1=F2_171.1.2.3.4 Bus2=F2_177.1.2.3.4 phases=4 Linecode=LC3 Length=0.41015 Units=m
New Line.F2_LINE177 Bus1=F2_172.1.2.3.4 Bus2=F2_178.1.2.3.4 phases=4 Linecode=LC8 Length=9.9495 Units=m
New Line.F2_LINE178 Bus1=F2_173.1.2.3.4 Bus2=F2_179.1.2.3.4 phases=4 Linecode=LC3 Length=0.57899 Units=m
New Line.F2_LINE179 Bus1=F2_174.1.2.3.4 Bus2=F2_180.1.2.3.4 phases=4 Linecode=LC6 Length=0.3844 Units=m
New Line.F2_LINE180 Bus1=F2_175.1.2.3.4 Bus2=F2_181.1.2.3.4 phases=4 Linecode=LC6 Length=7.5749 Units=m
New Line.F2_LINE181 Bus1=F2_176.1.2.3.4 Bus2=F2_182.1.2.3.4 phases=4 Linecode=LC6 Length=0.27554 Units=m
New Line.F2_LINE182 Bus1=F2_176.1.2.3.4 Bus2=F2_183.1.2.3.4 phases=4 Linecode=LC3 Length=3.0002 Units=m
New Line.F2_LINE183 Bus1=F2_177.1.2.3.4 Bus2=F2_184.1.2.3.4 phases=4 Linecode=LC3 Length=0.8107 Units=m
New Line.F2_LINE184 Bus1=F2_178.1.2.3.4 Bus2=F2_185.1.2.3.4 phases=4 Linecode=LC8 Length=13.337 Units=m
New Line.F2_LINE185 Bus1=F2_179.1.2.3.4 Bus2=F2_186.1.2.3.4 phases=4 Linecode=LC3 Length=6.995 Units=m
New Line.F2_LINE186 Bus1=F2_180.1.2.3.4 Bus2=F2_187.1.2.3.4 phases=4 Linecode=LC6 Length=0.19807 Units=m
New Line.F2_LINE187 Bus1=F2_182.1.2.3.4 Bus2=F2_188.1.2.3.4 phases=4 Linecode=LC6 Length=0.20951 Units=m
New Line.F2_LINE188 Bus1=F2_183.1.2.3.4 Bus2=F2_189.1.2.3.4 phases=4 Linecode=LC6 Length=7.4458 Units=m
New Line.F2_LINE189 Bus1=F2_183.1.2.3.4 Bus2=F2_190.1.2.3.4 phases=4 Linecode=LC3 Length=4.0245 Units=m
New Line.F2_LINE190 Bus1=F2_184.1.2.3.4 Bus2=F2_191.1.2.3.4 phases=4 Linecode=LC3 Length=1.4826 Units=m
New Line.F2_LINE191 Bus1=F2_185.1.2.3.4 Bus2=F2_192.1.2.3.4 phases=4 Linecode=LC8 Length=4.6277 Units=m
New Line.F2_LINE192 Bus1=F2_186.1.2.3.4 Bus2=F2_193.1.2.3.4 phases=4 Linecode=LC3 Length=1.6496 Units=m
New Line.F2_LINE193 Bus1=F2_187.1.2.3.4 Bus2=F2_194.1.2.3.4 phases=4 Linecode=LC6 Length=0.33179 Units=m
New Line.F2_LINE194 Bus1=F2_188.1.2.3.4 Bus2=F2_195.1.2.3.4 phases=4 Linecode=LC6 Length=0.19228 Units=m
New Line.F2_LINE195 Bus1=F2_189.1.2.3.4 Bus2=F2_196.1.2.3.4 phases=4 Linecode=LC6 Length=5.1426 Units=m
New Line.F2_LINE196 Bus1=F2_190.1.2.3.4 Bus2=F2_197.1.2.3.4 phases=4 Linecode=LC6 Length=7.7733 Units=m
New Line.F2_LINE197 Bus1=F2_190.1.2.3.4 Bus2=F2_198.1.2.3.4 phases=4 Linecode=LC3 Length=5.7798 Units=m
New Line.F2_LINE198 Bus1=F2_191.1.2.3.4 Bus2=F2_199.1.2.3.4 phases=4 Linecode=LC3 Length=1.6369 Units=m
New Line.F2_LINE199 Bus1=F2_192.1.2.3.4 Bus2=F2_200.1.2.3.4 phases=4 Linecode=LC8 Length=4.134 Units=m
...
! ----------------------------------------------------------------------------------------------